67
Frame 1
P 1.8351 1.1222 9.1374
O 2.7574 1.9889 9.9937
O 0.9224 0.2894 10.0442
O 0.9684 2.0167 8.2661
O 2.6583 0.1891 8.2490
O 0.5340 -0.0156 6.1403
O 2.9561 2.1815 6.1525
O 3.0110 0.0218 12.0550
O 0.7501 2.3953 12.3045
O -1.1199 0.0423 8.0819
O -0.9972 2.3336 10.3884
O 4.9005 2.1320 7.8562
O 4.8614 -0.0475 10.2557
O 0.6195 -1.8995 7.9481
O 2.9276 -1.7999 10.2245
O 0.8460 4.1096 10.3423
O 3.0621 3.9854 7.9771
O 0.3255 2.6060 5.8751
O 3.1874 -0.4550 5.7560
O -1.5678 -0.2674 10.6858
O -1.4875 2.6822 7.8043
O 3.1531 -2.3288 7.6361
O 0.3219 -2.1172 10.6178
O -1.8893 -2.4740 8.9778
O 1.4040 -2.5132 5.3499
O -2.0048 1.0859 5.6169
W 4.5204 3.4766 9.0506
W -0.6549 -1.4018 9.1891
W -0.5906 3.7293 9.1135
W 4.3634 -1.3532 9.0599
W 1.9969 3.6719 11.7415
W 1.7254 -1.3455 6.4650
W 1.7495 -1.3559 11.6440
W 1.7534 3.6167 6.6249
W 4.4059 1.2140 11.6484
W -0.7931 1.3323 6.7009
W 4.2972 0.9295 6.4736
W -0.5848 1.1747 11.7912
O 3.4418 4.5305 10.5270
O 5.1977 2.5484 10.5237
O 5.6492 4.6380 8.7485
O -1.6860 4.9081 9.4543
O 0.4554 4.4669 7.7339
O 5.4334 -2.5808 9.3095
O 5.0404 -0.4677 7.5700
O 1.8186 4.9094 12.8122
O 3.4117 2.6612 12.4076
O 0.3977 -0.2599 12.4658
O 2.0421 -2.5086 12.7796
O 2.0561 4.7548 5.4775
O 5.5507 0.9236 12.7910
O 5.4050 1.1590 5.2820
O -1.7863 1.4166 12.8917
H -2.5177 -0.2732 10.7201
H 2.8723 -3.1910 7.9220
H 3.2302 5.4179 10.2591
C -5.0066 0.6796 9.7557
C -5.0729 -0.3589 10.8782
H -5.6767 1.5006 9.9947
H -4.0125 1.1217 9.7020
H -4.4506 -1.2278 10.6628
H -4.7686 0.0594 11.8345
H -6.0837 -0.7349 10.9981
C -5.3683 0.0994 8.3899
H -6.3765 -0.3045 8.3931
H -5.3160 0.8577 7.6157
H -4.6933 -0.7058 8.1122
