36
Frame 1
W 2.7660 -1.5904 -3.5794
O 2.4868 -0.0778 -2.9319
O 2.9094 -2.6131 -2.0190
W 3.3142 -4.5369 -2.0065
O 3.2945 -4.7721 -0.3548
O 2.4393 -1.3634 -5.5062
O 3.6500 -6.3009 -2.7272
H 4.4424 -6.7320 -2.4411
H 2.9718 -0.6986 -5.9189
O 0.9392 -2.2514 -3.6878
O 1.4738 -4.8137 -2.3379
O 5.1290 -4.1574 -2.2508
O 4.5810 -1.4275 -3.9460
H 5.1153 -2.0718 -4.4151
H 5.5524 -3.9874 -3.0884
H 1.1269 -4.5149 -3.1684
H 1.5322 -2.1349 -0.4435
H 0.5102 -2.1018 -4.5165
H 2.9492 -2.9499 -6.5574
P 4.0814 -4.3012 -5.3790
O 5.4537 -3.7984 -5.1641
O 3.1701 -3.8671 -4.1943
O 3.9547 -5.8589 -5.5217
O 3.3851 -3.7884 -6.6914
H 3.8015 -6.2903 -4.6843
C 1.8902 -1.3582 0.3717
C 0.2465 -2.3756 -0.4821
C -0.0537 -3.5289 0.4282
H -0.3182 -1.4716 -0.3491
H 0.4102 -2.6146 -1.5247
H 0.6869 -4.3095 0.3326
H -0.1591 -3.2272 1.4621
H -1.0052 -3.9311 0.0902
H 1.2953 -1.2332 1.2555
H 2.8095 -1.8949 0.5565
H 2.0289 -0.4603 -0.2072
