67
Frame 1
P 1.8524 1.1361 9.1250
O 2.7738 2.0076 9.9764
O 0.9653 0.2960 10.0374
O 0.9671 2.0226 8.2603
O 2.6780 0.2118 8.2316
O 0.5194 0.0053 6.1245
O 2.9455 2.1850 6.1441
O 3.0375 0.0195 12.0541
O 0.7432 2.3396 12.2120
O -1.1658 0.0744 8.0605
O -1.0409 2.3560 10.3577
O 4.8856 2.1350 7.8507
O 4.8803 -0.0347 10.2464
O 0.6133 -1.8088 7.9962
O 2.9503 -1.7946 10.2270
O 0.8404 4.1267 10.3144
O 3.0563 3.9968 7.9683
O 0.3201 2.6207 5.8643
O 3.1648 -0.4607 5.7702
O -1.4897 -0.2337 10.6400
O -1.4995 2.6915 7.7941
O 3.1463 -2.3244 7.6577
O 0.3420 -2.1233 10.6204
O -1.9336 -2.4147 9.0269
O 1.3580 -2.5292 5.4213
O -2.0265 1.1066 5.6129
W 4.5145 3.4765 9.0539
W -0.7009 -1.3311 9.2672
W -0.5852 3.7452 9.1094
W 4.3767 -1.3500 9.0633
W 1.9672 3.6214 11.7358
W 1.6946 -1.3363 6.5090
W 1.7566 -1.3529 11.6464
W 1.7593 3.6264 6.6166
W 4.4182 1.2159 11.6500
W -0.7912 1.3438 6.6843
W 4.2802 0.9197 6.4740
W -0.6474 1.0864 11.7091
O 3.4182 4.5194 10.5204
O 5.2066 2.5577 10.5205
O 5.6430 4.6391 8.7480
O -1.6961 4.9208 9.4384
O 0.4484 4.4737 7.7124
O 5.4523 -2.5748 9.3126
O 5.0447 -0.4709 7.5629
O 1.7594 4.8356 12.8317
O 3.4183 2.6535 12.4035
O 0.4176 -0.2678 12.4682
O 2.0526 -2.5082 12.7819
O 2.0645 4.7633 5.4661
O 5.5681 0.9301 12.7909
O 5.3845 1.1438 5.2757
O -1.8381 1.3542 12.8301
H -3.7516 -0.0597 10.4533
H 2.8287 -3.1563 7.9901
H 3.1421 5.3740 10.2087
C -4.1587 0.8754 9.5107
C -4.4468 -0.5652 11.2260
H -4.7634 1.5747 10.0587
H -3.1146 1.1400 9.4460
H -4.1136 -1.5831 11.0847
H -4.1102 -0.1275 12.1525
H -5.5006 -0.4462 11.0535
C -4.7584 0.1511 8.3564
H -5.7768 -0.1618 8.5384
H -4.7602 0.8787 7.5451
H -4.1466 -0.6829 8.0432
