36
Frame 1
W 2.1896 -1.8580 -3.6869
O 1.4203 -0.5234 -3.0401
O 2.0461 -3.0137 -2.2354
W 2.7705 -4.8563 -2.2787
O 2.3648 -5.3363 -0.7349
O 2.5875 -1.3530 -5.5525
O 3.7139 -6.3921 -2.9558
H 4.3431 -6.7946 -2.3784
H 3.1406 -0.5904 -5.6230
O 0.7530 -2.7867 -4.5578
O 1.2319 -5.3083 -3.2079
O 4.4432 -4.0759 -1.8016
O 3.9468 -1.3184 -3.3056
H 4.7068 -1.7818 -3.6553
H 5.0451 -3.7468 -2.4595
H 0.9010 -4.7656 -3.9121
H 2.3647 -1.9576 -0.4291
H 0.6654 -2.6688 -5.4890
H 3.6588 -2.6783 -6.4900
P 4.5498 -3.9787 -5.0962
O 5.6201 -3.2492 -4.4082
O 3.2549 -3.8985 -4.2695
O 4.8493 -5.4760 -5.3643
O 4.2146 -3.4528 -6.5186
H 4.5262 -6.0501 -4.6755
C 3.3921 -1.5419 0.0251
C 1.3424 -1.5738 0.2326
C 0.9592 -2.7183 1.1334
H 1.4275 -0.6044 0.6859
H 0.8339 -1.5252 -0.7186
H 1.0907 -3.6713 0.6409
H 1.5130 -2.7069 2.0634
H -0.0945 -2.5911 1.3643
H 3.4909 -1.5238 1.0931
H 3.9176 -2.3693 -0.4400
H 3.5655 -0.6019 -0.4681
